REMARK  12 active torsions:
REMARK  status: ('A' for Active; 'I' for Inactive)
REMARK    1  A    between atoms: O_2  and  C1_3 
REMARK    2  A    between atoms: C5_5  and  C6_6 
REMARK    3  A    between atoms: C6_6  and  O6_7 
REMARK    4  A    between atoms: C4_9  and  O4_16 
REMARK    5  A    between atoms: C3_11  and  O3_12 
REMARK    6  A    between atoms: C2_14  and  O2_15 
REMARK    7  A    between atoms: O4_16  and  C1_17 
REMARK    8  A    between atoms: C5_19  and  C6_20 
REMARK    9  A    between atoms: C6_20  and  O6_21 
REMARK   10  A    between atoms: C4_23  and  O4_24 
REMARK   11  A    between atoms: C3_26  and  O3_27 
REMARK   12  A    between atoms: C2_29  and  O2_30 
ROOT
ATOM      1  O4  4GB     2      -1.731   9.414  -6.759  1.00  0.00    -0.348 OA
ENDROOT
BRANCH   1   2
ATOM      2  C4  4GB     2      -2.475   8.279  -6.141  1.00  0.00     0.187 C 
ATOM      3  C5  4GB     2      -2.929   8.781  -4.757  1.00  0.00     0.180 C 
ATOM      4  O5  4GB     2      -3.496   7.654  -3.969  1.00  0.00    -0.349 OA
ATOM      5  C1  4GB     2      -2.556   6.549  -3.714  1.00  0.00     0.290 C 
ATOM      6  C2  4GB     2      -2.129   5.936  -5.068  1.00  0.00     0.204 C 
ATOM      7  C3  4GB     2      -1.580   7.010  -6.039  1.00  0.00     0.183 C 
BRANCH   3   8
ATOM      8  C6  4GB     2      -3.984   9.898  -4.863  1.00  0.00     0.198 C 
BRANCH   8   9
ATOM      9  O6  4GB     2      -4.340  10.353  -3.547  1.00  0.00    -0.398 OA
ATOM     10  H6O 4GB     2      -4.646   9.594  -3.039  1.00  0.00     0.209 HD
ENDBRANCH   8   9
ENDBRANCH   3   8
BRANCH   5  11
ATOM     11  O   OME     1      -3.201   5.510  -2.901  1.00  0.00    -0.363 OA
ATOM     12  CH3 OME     1      -3.482   5.915  -1.520  1.00  0.00     0.204 C 
ENDBRANCH   5  11
BRANCH   6  13
ATOM     13  O2  4GB     2      -1.107   4.919  -4.849  1.00  0.00    -0.388 OA
ATOM     14  H2O 4GB     2      -1.472   4.238  -4.271  1.00  0.00     0.210 HD
ENDBRANCH   6  13
BRANCH   7  15
ATOM     15  O3  4GB     2      -1.450   6.382  -7.345  1.00  0.00    -0.390 OA
ATOM     16  H3O 4GB     2      -0.860   5.623  -7.243  1.00  0.00     0.210 HD
ENDBRANCH   7  15
ENDBRANCH   1   2
BRANCH   1  17
ATOM     17  C1  0LB     3      -2.065   9.704  -8.166  1.00  0.00     0.292 C 
ATOM     18  O5  0LB     3      -1.519   8.657  -9.029  1.00  0.00    -0.348 OA
ATOM     19  C5  0LB     3      -1.784   8.779 -10.484  1.00  0.00     0.179 C 
ATOM     20  C4  0LB     3      -1.233  10.130 -10.993  1.00  0.00     0.180 C 
ATOM     21  C3  0LB     3      -1.750  11.296 -10.111  1.00  0.00     0.183 C 
ATOM     22  C2  0LB     3      -1.477  11.072  -8.600  1.00  0.00     0.204 C 
BRANCH  19  23
ATOM     23  C6  0LB     3      -1.215   7.531 -11.180  1.00  0.00     0.198 C 
BRANCH  23  24
ATOM     24  O6  0LB     3      -1.797   6.363 -10.571  1.00  0.00    -0.398 OA
ATOM     25  H6O 0LB     3      -1.698   6.465  -9.611  1.00  0.00     0.209 HD
ENDBRANCH  23  24
ENDBRANCH  19  23
BRANCH  20  26
ATOM     26  O4  0LB     3       0.215  10.108 -10.966  1.00  0.00    -0.390 OA
ATOM     27  H4O 0LB     3       0.517  11.005 -11.161  1.00  0.00     0.210 HD
ENDBRANCH  20  26
BRANCH  21  28
ATOM     28  O3  0LB     3      -1.151  12.542 -10.566  1.00  0.00    -0.390 OA
ATOM     29  H3O 0LB     3      -1.458  13.245  -9.978  1.00  0.00     0.210 HD
ENDBRANCH  21  28
BRANCH  22  30
ATOM     30  O2  0LB     3      -2.102  12.147  -7.837  1.00  0.00    -0.388 OA
ATOM     31  H2O 0LB     3      -1.862  12.043  -6.909  1.00  0.00     0.210 HD
ENDBRANCH  22  30
ENDBRANCH   1  17
TORSDOF 12
