REMARK  18 active torsions:
REMARK  status: ('A' for Active; 'I' for Inactive)
REMARK    1  A    between atoms: O_2  and  C1_3 
REMARK    2  A    between atoms: C2_4  and  N2_15 
REMARK    3  A    between atoms: C3_5  and  O3_13 
REMARK    4  A    between atoms: C4_6  and  O4_11 
REMARK    5  A    between atoms: C5_7  and  C6_8 
REMARK    6  A    between atoms: C6_8  and  O6_19 
REMARK       I    between atoms: N2_15  and  C2N_17 
REMARK    7  A    between atoms: O6_19  and  C2_20 
REMARK    8  A    between atoms: C2_20  and  C1_21 
REMARK    9  A    between atoms: C4_25  and  O4_45 
REMARK   10  A    between atoms: C5_26  and  N5_38 
REMARK   11  A    between atoms: C6_27  and  C7_28 
REMARK   12  A    between atoms: C7_28  and  O7_35 
REMARK   13  A    between atoms: C7_28  and  C8_29 
REMARK   14  A    between atoms: C8_29  and  C9_30 
REMARK   15  A    between atoms: C8_29  and  O8_33 
REMARK   16  A    between atoms: C9_30  and  O9_31 
REMARK       I    between atoms: N5_38  and  C5N_40 
REMARK   17  A    between atoms: C5N_40  and  CME_41 
REMARK   18  A    between atoms: CME_41  and  OHG_42 
ROOT
ATOM      1  C2  0GL     3       2.683   8.779  -1.266  1.00  0.00     0.258 C 
ATOM      2  C3  0GL     3       3.908   7.825  -1.355  1.00  0.00     0.114 C 
ATOM      3  C4  0GL     3       5.021   8.224  -0.368  1.00  0.00     0.149 C 
ATOM      4  C5  0GL     3       4.481   8.407   1.093  1.00  0.00     0.145 C 
ATOM      5  C6  0GL     3       3.299   9.390   1.031  1.00  0.00     0.182 C 
ATOM      6  O6  0GL     3       2.320   8.837   0.129  1.00  0.00    -0.336 OA
ENDROOT
BRANCH   1   7
ATOM      7  O6  6VA     2       1.604   8.156  -2.007  1.00  0.00    -0.344 OA
BRANCH   7   8
ATOM      8  C6  6VA     2       0.847   7.019  -1.434  1.00  0.00     0.207 C 
BRANCH   8   9
ATOM      9  C5  6VA     2      -0.148   6.393  -2.428  1.00  0.00     0.180 C 
ATOM     10  C4  6VA     2       0.432   5.847  -3.754  1.00  0.00     0.180 C 
ATOM     11  C3  6VA     2      -0.694   5.168  -4.570  1.00  0.00     0.177 C 
ATOM     12  C2  6VA     2      -1.859   6.162  -4.848  1.00  0.00     0.170 C 
ATOM     13  C1  6VA     2      -2.401   6.779  -3.521  1.00  0.00     0.284 C 
ATOM     14  O5  6VA     2      -1.302   7.305  -2.684  1.00  0.00    -0.349 OA
BRANCH  10  15
ATOM     15  O4  6VA     2       0.993   6.908  -4.557  1.00  0.00    -0.390 OA
ATOM     16  H4O 6VA     2       1.422   6.516  -5.323  1.00  0.00     0.210 HD
ENDBRANCH  10  15
BRANCH  11  17
ATOM     17  O3  6VA     2      -0.133   4.594  -5.795  1.00  0.00    -0.391 OA
ATOM     18  H3O 6VA     2      -0.642   4.906  -6.569  1.00  0.00     0.210 HD
ENDBRANCH  11  17
BRANCH  12  19
ATOM     19  N2  6VA     2      -2.958   5.518  -5.607  1.00  0.00    -0.349 N 
ATOM     20  H2N 6VA     2      -3.742   5.194  -5.063  1.00  0.00     0.163 HD
ATOM     21  C2N 6VA     2      -2.936   5.296  -6.923  1.00  0.00     0.214 C 
ATOM     22  CME 6VA     2      -4.208   4.695  -7.556  1.00  0.00     0.117 C 
ATOM     23  O2N 6VA     2      -1.940   5.545  -7.598  1.00  0.00    -0.274 OA
ENDBRANCH  12  19
BRANCH  13  24
ATOM     24  O   OME     1      -3.182   5.778  -2.764  1.00  0.00    -0.364 OA
ATOM     25  CH3 OME     1      -3.885   6.336  -1.602  1.00  0.00     0.204 C 
ENDBRANCH  13  24
ENDBRANCH   8   9
ENDBRANCH   7   8
ENDBRANCH   1   7
BRANCH   1  26
ATOM     26  C1  0GL     3       3.044  10.261  -1.843  1.00  0.00     0.239 C 
ATOM     27  O1B 0GL     3       4.001  10.366  -2.650  1.00  0.00    -0.644 OA
ATOM     28  O1A 0GL     3       2.474  11.242  -1.294  1.00  0.00    -0.644 OA
ENDBRANCH   1  26
BRANCH   3  29
ATOM     29  O4  0GL     3       6.069   7.217  -0.450  1.00  0.00    -0.393 OA
ATOM     30  H4O 0GL     3       6.355   7.170  -1.368  1.00  0.00     0.210 HD
ENDBRANCH   3  29
BRANCH   5  31
ATOM     31  C7  0GL     3       2.597   9.832   2.326  1.00  0.00     0.180 C 
BRANCH  31  32
ATOM     32  O7  0GL     3       2.218   8.661   3.096  1.00  0.00    -0.390 OA
ATOM     33  H7O 0GL     3       3.028   8.236   3.435  1.00  0.00     0.210 HD
ENDBRANCH  31  32
BRANCH  31  34
ATOM     34  C8  0GL     3       1.360  10.737   2.055  1.00  0.00     0.173 C 
BRANCH  34  35
ATOM     35  C9  0GL     3       0.724  11.255   3.365  1.00  0.00     0.198 C 
BRANCH  35  36
ATOM     36  O9  0GL     3      -0.430  12.066   3.066  1.00  0.00    -0.398 OA
ATOM     37  H9O 0GL     3      -0.181  12.590   2.294  1.00  0.00     0.209 HD
ENDBRANCH  35  36
ENDBRANCH  34  35
BRANCH  34  38
ATOM     38  O8  0GL     3       1.759  11.896   1.255  1.00  0.00    -0.391 OA
ATOM     39  H8O 0GL     3       1.961  11.628   0.324  1.00  0.00     0.210 HD
ENDBRANCH  34  38
ENDBRANCH  31  34
ENDBRANCH   5  31
BRANCH   4  40
ATOM     40  N5  0GL     3       5.527   8.903   2.017  1.00  0.00    -0.350 N 
ATOM     41  C5N 0GL     3       5.626   8.543   3.301  1.00  0.00     0.241 C 
ATOM     42  O5N 0GL     3       4.744   7.868   3.834  1.00  0.00    -0.271 OA
ATOM     43  H5N 0GL     3       6.235   9.512   1.635  1.00  0.00     0.163 HD
BRANCH  41  44
ATOM     44  CME 0GL     3       6.912   8.998   4.108  1.00  0.00     0.266 C 
BRANCH  44  45
ATOM     45  OHG 0GL     3       8.034   9.559   3.367  1.00  0.00    -0.392 OA
ATOM     46  HOG 0GL     3       8.517   8.853   2.927  1.00  0.00     0.210 HD
ENDBRANCH  44  45
ENDBRANCH  41  44
ENDBRANCH   4  40
TORSDOF 18
