REMARK  24 active torsions:
REMARK  status: ('A' for Active; 'I' for Inactive)
REMARK    1  A    between atoms: O_2  and  C1_3 
REMARK    2  A    between atoms: C2_4  and  O2_15 
REMARK    3  A    between atoms: C3_5  and  O3_16 
REMARK    4  A    between atoms: C4_6  and  O4_12 
REMARK    5  A    between atoms: C5_7  and  C6_8 
REMARK    6  A    between atoms: C6_8  and  O6_9 
REMARK    7  A    between atoms: O3_16  and  C1_17 
REMARK    8  A    between atoms: C2_18  and  O2_30 
REMARK    9  A    between atoms: C3_19  and  O3_28 
REMARK   10  A    between atoms: C4_20  and  O4_26 
REMARK   11  A    between atoms: C5_21  and  C6_22 
REMARK   12  A    between atoms: C6_22  and  O6_23 
REMARK   13  A    between atoms: O2_30  and  C1_31 
REMARK   14  A    between atoms: C2_32  and  O2_44 
REMARK   15  A    between atoms: C3_33  and  O3_42 
REMARK   16  A    between atoms: C4_34  and  O4_40 
REMARK   17  A    between atoms: C5_35  and  C6_36 
REMARK   18  A    between atoms: C6_36  and  O6_37 
REMARK   19  A    between atoms: O2_44  and  C1_45 
REMARK   20  A    between atoms: C2_46  and  O2_58 
REMARK   21  A    between atoms: C3_47  and  O3_56 
REMARK   22  A    between atoms: C4_48  and  O4_54 
REMARK   23  A    between atoms: C5_49  and  C6_50 
REMARK   24  A    between atoms: C6_50  and  O6_51 
ROOT
ATOM      1  O2  2MA     3       0.249   7.411  -9.108  1.00  0.00    -0.346 OA
ENDROOT
BRANCH   1   2
ATOM      2  C1  2MA     4      -0.016   7.937 -10.449  1.00  0.00     0.292 C 
ATOM      3  O5  2MA     4      -1.429   8.347 -10.559  1.00  0.00    -0.348 OA
ATOM      4  C5  2MA     4      -1.856   9.516  -9.738  1.00  0.00     0.179 C 
ATOM      5  C4  2MA     4      -0.984  10.731 -10.117  1.00  0.00     0.180 C 
ATOM      6  C3  2MA     4       0.515  10.385  -9.936  1.00  0.00     0.183 C 
ATOM      7  C2  2MA     4       0.928   9.126 -10.729  1.00  0.00     0.211 C 
BRANCH   4   8
ATOM      8  C6  2MA     4      -3.366   9.754  -9.941  1.00  0.00     0.198 C 
BRANCH   8   9
ATOM      9  O6  2MA     4      -4.133   8.685  -9.341  1.00  0.00    -0.398 OA
ATOM     10  H6O 2MA     4      -4.278   8.874  -8.405  1.00  0.00     0.209 HD
ENDBRANCH   8   9
ENDBRANCH   4   8
BRANCH   5  11
ATOM     11  O4  2MA     4      -1.319  11.842  -9.248  1.00  0.00    -0.390 OA
ATOM     12  H4O 2MA     4      -0.660  12.531  -9.403  1.00  0.00     0.210 HD
ENDBRANCH   5  11
BRANCH   6  13
ATOM     13  O3  2MA     4       1.338  11.523 -10.326  1.00  0.00    -0.390 OA
ATOM     14  H3O 2MA     4       2.268  11.338 -10.153  1.00  0.00     0.210 HD
ENDBRANCH   6  13
BRANCH   7  15
ATOM     15  O2  2MA     4       0.934   9.374 -12.199  1.00  0.00    -0.346 OA
BRANCH  15  16
ATOM     16  C1  0MA     5       2.267   9.433 -12.818  1.00  0.00     0.292 C 
ATOM     17  C2  0MA     5       2.106   9.700 -14.338  1.00  0.00     0.204 C 
ATOM     18  C3  0MA     5       1.499   8.464 -15.041  1.00  0.00     0.183 C 
ATOM     19  C4  0MA     5       2.317   7.176 -14.763  1.00  0.00     0.180 C 
ATOM     20  C5  0MA     5       2.434   6.936 -13.242  1.00  0.00     0.179 C 
ATOM     21  O5  0MA     5       2.984   8.158 -12.585  1.00  0.00    -0.348 OA
BRANCH  17  22
ATOM     22  O2  0MA     5       3.397  10.030 -14.931  1.00  0.00    -0.388 OA
ATOM     23  H2O 0MA     5       3.314   9.987 -15.892  1.00  0.00     0.210 HD
ENDBRANCH  17  22
BRANCH  18  24
ATOM     24  O3  0MA     5       1.401   8.716 -16.476  1.00  0.00    -0.390 OA
ATOM     25  H3O 0MA     5       0.658   9.304 -16.655  1.00  0.00     0.210 HD
ENDBRANCH  18  24
BRANCH  19  26
ATOM     26  O4  0MA     5       1.632   6.046 -15.366  1.00  0.00    -0.390 OA
ATOM     27  H4O 0MA     5       1.476   6.265 -16.294  1.00  0.00     0.210 HD
ENDBRANCH  19  26
BRANCH  20  28
ATOM     28  C6  0MA     5       3.306   5.714 -12.881  1.00  0.00     0.198 C 
BRANCH  28  29
ATOM     29  O6  0MA     5       3.282   5.453 -11.458  1.00  0.00    -0.398 OA
ATOM     30  H6O 0MA     5       2.362   5.420 -11.147  1.00  0.00     0.209 HD
ENDBRANCH  28  29
ENDBRANCH  20  28
ENDBRANCH  15  16
ENDBRANCH   7  15
ENDBRANCH   1   2
BRANCH   1  31
ATOM     31  C2  2MA     3      -0.492   6.161  -8.781  1.00  0.00     0.211 C 
ATOM     32  C1  2MA     3      -1.004   6.281  -7.333  1.00  0.00     0.292 C 
ATOM     33  O5  2MA     3       0.103   6.151  -6.365  1.00  0.00    -0.348 OA
ATOM     34  C5  2MA     3       1.030   4.987  -6.506  1.00  0.00     0.179 C 
ATOM     35  C4  2MA     3       1.583   4.934  -7.950  1.00  0.00     0.180 C 
ATOM     36  C3  2MA     3       0.399   4.914  -8.950  1.00  0.00     0.183 C 
BRANCH  32  37
ATOM     37  O3  3MA     2      -2.018   5.249  -7.084  1.00  0.00    -0.348 OA
BRANCH  37  38
ATOM     38  C3  3MA     2      -2.845   5.492  -5.865  1.00  0.00     0.189 C 
ATOM     39  C4  3MA     2      -4.303   5.806  -6.272  1.00  0.00     0.181 C 
ATOM     40  C5  3MA     2      -5.201   5.965  -5.026  1.00  0.00     0.179 C 
ATOM     41  O5  3MA     2      -5.061   4.763  -4.154  1.00  0.00    -0.349 OA
ATOM     42  C1  3MA     2      -3.693   4.404  -3.719  1.00  0.00     0.290 C 
ATOM     43  C2  3MA     2      -2.742   4.267  -4.937  1.00  0.00     0.205 C 
BRANCH  39  44
ATOM     44  O4  3MA     2      -4.331   7.045  -7.036  1.00  0.00    -0.390 OA
ATOM     45  H4O 3MA     2      -4.100   6.863  -7.960  1.00  0.00     0.210 HD
ENDBRANCH  39  44
BRANCH  40  46
ATOM     46  C6  3MA     2      -6.687   6.160  -5.398  1.00  0.00     0.198 C 
BRANCH  46  47
ATOM     47  O6  3MA     2      -7.472   6.532  -4.245  1.00  0.00    -0.398 OA
ATOM     48  H6O 3MA     2      -7.145   7.354  -3.873  1.00  0.00     0.209 HD
ENDBRANCH  46  47
ENDBRANCH  40  46
BRANCH  42  49
ATOM     49  O   OME     1      -3.165   5.431  -2.813  1.00  0.00    -0.363 OA
ATOM     50  CH3 OME     1      -3.838   5.468  -1.509  1.00  0.00     0.204 C 
ENDBRANCH  42  49
BRANCH  43  51
ATOM     51  O2  3MA     2      -3.034   3.050  -5.685  1.00  0.00    -0.388 OA
ATOM     52  H2O 3MA     2      -2.486   3.032  -6.478  1.00  0.00     0.210 HD
ENDBRANCH  43  51
ENDBRANCH  37  38
ENDBRANCH  32  37
BRANCH  34  53
ATOM     53  C6  2MA     3       2.147   5.091  -5.445  1.00  0.00     0.198 C 
BRANCH  53  54
ATOM     54  O6  2MA     3       1.620   4.884  -4.118  1.00  0.00    -0.398 OA
ATOM     55  H6O 2MA     3       1.374   3.964  -3.996  1.00  0.00     0.209 HD
ENDBRANCH  53  54
ENDBRANCH  34  53
BRANCH  35  56
ATOM     56  O4  2MA     3       2.374   3.726  -8.112  1.00  0.00    -0.390 OA
ATOM     57  H4O 2MA     3       2.994   3.856  -8.842  1.00  0.00     0.210 HD
ENDBRANCH  35  56
BRANCH  36  58
ATOM     58  O3  2MA     3       0.862   4.814 -10.329  1.00  0.00    -0.390 OA
ATOM     59  H3O 2MA     3       0.951   3.877 -10.549  1.00  0.00     0.210 HD
ENDBRANCH  36  58
ENDBRANCH   1  31
TORSDOF 24
