REMARK  22 active torsions:
REMARK  status: ('A' for Active; 'I' for Inactive)
REMARK    1  A    between atoms: O_2  and  C1_3 
REMARK    2  A    between atoms: C5_5  and  C6_6 
REMARK    3  A    between atoms: C6_6  and  O6_7 
REMARK    4  A    between atoms: C4_9  and  O4_10 
REMARK    5  A    between atoms: C3_12  and  O3_19 
REMARK    6  A    between atoms: C2_13  and  N2_14 
REMARK       I    between atoms: N2_14  and  C2N_16 
REMARK    7  A    between atoms: O3_19  and  C1_20 
REMARK    8  A    between atoms: C5_22  and  C6_23 
REMARK    9  A    between atoms: C6_23  and  O6_24 
REMARK   10  A    between atoms: C4_26  and  O4_27 
REMARK   11  A    between atoms: C3_29  and  O3_31 
REMARK   12  A    between atoms: C2_30  and  O2_32 
REMARK   13  A    between atoms: O3_31  and  C1_33 
REMARK   14  A    between atoms: O2_32  and  C1_48 
REMARK   15  A    between atoms: C2_34  and  O2_46 
REMARK   16  A    between atoms: C3_35  and  O3_44 
REMARK   17  A    between atoms: C4_36  and  O4_42 
REMARK   18  A    between atoms: C5_37  and  C6_38 
REMARK   19  A    between atoms: C6_38  and  O6_39 
REMARK   20  A    between atoms: C4_52  and  O4_53 
REMARK   21  A    between atoms: C3_55  and  O3_56 
REMARK   22  A    between atoms: C2_58  and  O2_59 
ROOT
ATOM      1  C1  ZLB     3       0.773   7.423  -7.429  1.00  0.00     0.292 C 
ATOM      2  O5  ZLB     3       1.005   8.870  -7.285  1.00  0.00    -0.348 OA
ATOM      3  C5  ZLB     3       2.403   9.326  -7.485  1.00  0.00     0.179 C 
ATOM      4  C4  ZLB     3       2.851   8.938  -8.908  1.00  0.00     0.181 C 
ATOM      5  C3  ZLB     3       2.642   7.424  -9.169  1.00  0.00     0.190 C 
ATOM      6  C2  ZLB     3       1.207   6.948  -8.840  1.00  0.00     0.211 C 
ENDROOT
BRANCH   1   7
ATOM      7  O3  3YB     2      -0.660   7.156  -7.220  1.00  0.00    -0.348 OA
BRANCH   7   8
ATOM      8  C3  3YB     2      -1.189   7.422  -5.849  1.00  0.00     0.183 C 
ATOM      9  C2  3YB     2      -1.853   6.147  -5.282  1.00  0.00     0.171 C 
ATOM     10  C1  3YB     2      -2.614   6.463  -3.960  1.00  0.00     0.284 C 
ATOM     11  O5  3YB     2      -3.548   7.586  -4.180  1.00  0.00    -0.349 OA
ATOM     12  C5  3YB     2      -2.922   8.864  -4.615  1.00  0.00     0.179 C 
ATOM     13  C4  3YB     2      -2.162   8.618  -5.933  1.00  0.00     0.180 C 
BRANCH   9  14
ATOM     14  N2  3YB     2      -0.823   5.107  -5.063  1.00  0.00    -0.349 N 
ATOM     15  C2N 3YB     2      -0.882   3.888  -5.602  1.00  0.00     0.214 C 
ATOM     16  O2N 3YB     2      -1.794   3.538  -6.346  1.00  0.00    -0.274 OA
ATOM     17  CME 3YB     2       0.288   2.944  -5.261  1.00  0.00     0.117 C 
ATOM     18  H2N 3YB     2      -0.061   5.318  -4.442  1.00  0.00     0.163 HD
ENDBRANCH   9  14
BRANCH  10  19
ATOM     19  O   OME     1      -3.355   5.281  -3.499  1.00  0.00    -0.364 OA
ATOM     20  CH3 OME     1      -3.911   5.396  -2.147  1.00  0.00     0.204 C 
ENDBRANCH  10  19
BRANCH  12  21
ATOM     21  C6  3YB     2      -4.012   9.942  -4.755  1.00  0.00     0.198 C 
BRANCH  21  22
ATOM     22  O6  3YB     2      -4.720  10.076  -3.510  1.00  0.00    -0.398 OA
ATOM     23  H6O 3YB     2      -5.036   9.204  -3.251  1.00  0.00     0.209 HD
ENDBRANCH  21  22
ENDBRANCH  12  21
BRANCH  13  24
ATOM     24  O4  3YB     2      -1.395   9.804  -6.243  1.00  0.00    -0.390 OA
ATOM     25  H4O 3YB     2      -0.758   9.581  -6.941  1.00  0.00     0.210 HD
ENDBRANCH  13  24
ENDBRANCH   7   8
ENDBRANCH   1   7
BRANCH   6  26
ATOM     26  O2  ZLB     3       1.148   5.457  -8.854  1.00  0.00    -0.346 OA
BRANCH  26  27
ATOM     27  C1  0fA     5       0.750   4.842 -10.140  1.00  0.00     0.292 C 
ATOM     28  C2  0fA     5       0.741   3.278 -10.062  1.00  0.00     0.204 C 
ATOM     29  C3  0fA     5      -0.386   2.804  -9.116  1.00  0.00     0.183 C 
ATOM     30  C4  0fA     5      -1.762   3.331  -9.584  1.00  0.00     0.178 C 
ATOM     31  C5  0fA     5      -1.733   4.877  -9.675  1.00  0.00     0.152 C 
ATOM     32  C6  0fA     5      -3.013   5.522 -10.209  1.00  0.00     0.042 C 
ATOM     33  O5  0fA     5      -0.593   5.333 -10.522  1.00  0.00    -0.351 OA
BRANCH  28  34
ATOM     34  O2  0fA     5       2.014   2.734  -9.586  1.00  0.00    -0.388 OA
ATOM     35  H2O 0fA     5       1.831   1.800  -9.403  1.00  0.00     0.210 HD
ENDBRANCH  28  34
BRANCH  29  36
ATOM     36  O3  0fA     5      -0.427   1.345  -9.000  1.00  0.00    -0.390 OA
ATOM     37  H3O 0fA     5      -0.996   1.105  -8.257  1.00  0.00     0.210 HD
ENDBRANCH  29  36
BRANCH  30  38
ATOM     38  O4  0fA     5      -2.084   2.754 -10.878  1.00  0.00    -0.390 OA
ATOM     39  H4O 0fA     5      -2.024   1.794 -10.811  1.00  0.00     0.210 HD
ENDBRANCH  30  38
ENDBRANCH  26  27
ENDBRANCH   6  26
BRANCH   5  40
ATOM     40  O3  ZLB     3       2.968   7.117 -10.594  1.00  0.00    -0.348 OA
BRANCH  40  41
ATOM     41  C1  0LA     4       4.415   7.058 -10.903  1.00  0.00     0.292 C 
ATOM     42  C2  0LA     4       4.645   6.853 -12.430  1.00  0.00     0.204 C 
ATOM     43  C3  0LA     4       4.311   5.406 -12.870  1.00  0.00     0.183 C 
ATOM     44  C4  0LA     4       4.993   4.333 -11.989  1.00  0.00     0.180 C 
ATOM     45  C5  0LA     4       4.639   4.588 -10.511  1.00  0.00     0.179 C 
ATOM     46  O5  0LA     4       5.037   5.974 -10.125  1.00  0.00    -0.348 OA
BRANCH  42  47
ATOM     47  O2  0LA     4       3.826   7.787 -13.207  1.00  0.00    -0.388 OA
ATOM     48  H2O 0LA     4       2.896   7.663 -12.983  1.00  0.00     0.210 HD
ENDBRANCH  42  47
BRANCH  43  49
ATOM     49  O3  0LA     4       4.687   5.190 -14.259  1.00  0.00    -0.390 OA
ATOM     50  H3O 0LA     4       4.381   5.942 -14.782  1.00  0.00     0.210 HD
ENDBRANCH  43  49
BRANCH  44  51
ATOM     51  O4  0LA     4       6.430   4.371 -12.175  1.00  0.00    -0.390 OA
ATOM     52  H4O 0LA     4       6.600   4.329 -13.125  1.00  0.00     0.210 HD
ENDBRANCH  44  51
BRANCH  45  53
ATOM     53  C6  0LA     4       5.228   3.562  -9.524  1.00  0.00     0.198 C 
BRANCH  53  54
ATOM     54  O6  0LA     4       4.377   3.473  -8.363  1.00  0.00    -0.398 OA
ATOM     55  H6O 0LA     4       3.477   3.267  -8.674  1.00  0.00     0.209 HD
ENDBRANCH  53  54
ENDBRANCH  45  53
ENDBRANCH  40  41
ENDBRANCH   5  40
BRANCH   3  56
ATOM     56  C6  ZLB     3       2.502  10.833  -7.185  1.00  0.00     0.198 C 
BRANCH  56  57
ATOM     57  O6  ZLB     3       2.136  11.067  -5.814  1.00  0.00    -0.398 OA
ATOM     58  H6O ZLB     3       1.198  10.877  -5.711  1.00  0.00     0.209 HD
ENDBRANCH  56  57
ENDBRANCH   3  56
BRANCH   4  59
ATOM     59  O4  ZLB     3       2.103   9.713  -9.878  1.00  0.00    -0.390 OA
ATOM     60  H4O ZLB     3       2.416   9.520 -10.769  1.00  0.00     0.210 HD
ENDBRANCH   4  59
TORSDOF 22
